
#======================================================================
# CRYSTAL DATA
#----------------------------------------------------------------------
data_VESTA_phase_1

_chemical_name_common                  'Al_CAU_11_KB                          '
_cell_length_a                         6.611100
_cell_length_b                         12.888800
_cell_length_c                         20.019699
_cell_angle_alpha                      90.000000
_cell_angle_beta                       90.000000
_cell_angle_gamma                      90.000000
_cell_volume                           1705.861464
_space_group_name_H-M_alt              'P 1'
_space_group_IT_number                 1

loop_
_space_group_symop_operation_xyz
   'x, y, z'

loop_
   _atom_site_label
   _atom_site_occupancy
   _atom_site_fract_x
   _atom_site_fract_y
   _atom_site_fract_z
   _atom_site_adp_type
   _atom_site_U_iso_or_equiv
   _atom_site_type_symbol
   C1         1.0     0.934047     0.943241     0.884028    Uiso  ? C
   C2         1.0     0.903830     0.859866     0.927242    Uiso  ? C
   C3         1.0     0.726723     0.856587     0.965527    Uiso  ? C
   C4         1.0     0.580883     0.934803     0.962225    Uiso  ? C
   C5         1.0     0.612490     0.017648     0.918897    Uiso  ? C
   C6         1.0     0.787315     0.021520     0.879532    Uiso  ? C
   C7         1.0     0.809807     0.110348     0.832011    Uiso  ? C
   C8         1.0     0.613624     0.967069     0.418460    Uiso  ? C
   C9         1.0     0.583166     0.049621     0.462107    Uiso  ? C
   C10        1.0     0.729437     0.127609     0.465365    Uiso  ? C
   C11        1.0     0.906009     0.124326     0.426803    Uiso  ? C
   C12        1.0     0.935176     0.041177     0.383323    Uiso  ? C
   C13        1.0     0.787832     0.963198     0.378805    Uiso  ? C
   C14        1.0     0.809197     0.874576     0.331085    Uiso  ? C
   C15        1.0     0.095185     0.441883     0.131083    Uiso  ? C
   C16        1.0     0.067416     0.359738     0.087292    Uiso  ? C
   C17        1.0     0.214007     0.341761     0.038219    Uiso  ? C
   C18        1.0     0.388232     0.402472     0.032735    Uiso  ? C
   C19        1.0     0.416069     0.483943     0.077949    Uiso  ? C
   C20        1.0     0.269390     0.503835     0.126679    Uiso  ? C
   C21        1.0     0.286238     0.593761     0.173871    Uiso  ? C
   C22        1.0     0.420931     0.498999     0.578244    Uiso  ? C
   C23        1.0     0.395454     0.580618     0.533007    Uiso  ? C
   C24        1.0     0.222404     0.642230     0.538226    Uiso  ? C
   C25        1.0     0.074882     0.625083     0.587133    Uiso  ? C
   C26        1.0     0.100187     0.542689     0.630906    Uiso  ? C
   C27        1.0     0.273016     0.479702     0.626654    Uiso  ? C
   C28        1.0     0.287766     0.389498     0.673672    Uiso  ? C
   C29        1.0     0.109562     0.966287     0.084540    Uiso  ? C
   C30        1.0     0.077505     0.049174     0.041286    Uiso  ? C
   C31        1.0     0.223299     0.127379     0.037894    Uiso  ? C
   C32        1.0     0.400642     0.124145     0.076061    Uiso  ? C
   C33        1.0     0.431351     0.040704     0.119171    Uiso  ? C
   C34        1.0     0.284833     0.962315     0.123667    Uiso  ? C
   C35        1.0     0.308235     0.873212     0.170885    Uiso  ? C
   C36        1.0     0.436044     0.943255     0.619861    Uiso  ? C
   C37        1.0     0.407928     0.860036     0.576386    Uiso  ? C
   C38        1.0     0.232014     0.856599     0.537521    Uiso  ? C
   C39        1.0     0.085269     0.934407     0.540574    Uiso  ? C
   C40        1.0     0.114682     0.017057     0.584240    Uiso  ? C
   C41        1.0     0.288448     0.021141     0.624073    Uiso  ? C
   C42        1.0     0.309871     0.109971     0.671623    Uiso  ? C
   C43        1.0     0.918034     0.499773     0.924912    Uiso  ? C
   C44        1.0     0.890574     0.581212     0.970142    Uiso  ? C
   C45        1.0     0.716722     0.642203     0.964634    Uiso  ? C
   C46        1.0     0.570292     0.624608     0.915450    Uiso  ? C
   C47        1.0     0.597647     0.542425     0.871647    Uiso  ? C
   C48        1.0     0.771283     0.480075     0.876182    Uiso  ? C
   C49        1.0     0.787464     0.389868     0.829222    Uiso  ? C
   C50        1.0     0.598259     0.441929     0.371951    Uiso  ? C
   C51        1.0     0.572182     0.359413     0.415578    Uiso  ? C
   C52        1.0     0.719087     0.342028     0.464658    Uiso  ? C
   C53        1.0     0.892082     0.403618     0.470237    Uiso  ? C
   C54        1.0     0.918266     0.485402     0.425181    Uiso  ? C
   C55        1.0     0.771135     0.504814     0.376534    Uiso  ? C
   C56        1.0     0.786577     0.595078     0.329595    Uiso  ? C
   O1         1.0     0.649352     0.161274     0.820399    Uiso  ? O
   O2         1.0     0.984167     0.128123     0.807730    Uiso  ? O
   O3         1.0     0.983465     0.856518     0.306798    Uiso  ? O
   O4         1.0     0.648284     0.824076     0.319433    Uiso  ? O
   O5         1.0     0.453764     0.641467     0.178812    Uiso  ? O
   O6         1.0     0.123212     0.614568     0.204632    Uiso  ? O
   O7         1.0     0.124056     0.368911     0.704099    Uiso  ? O
   O8         1.0     0.454743     0.341358     0.678803    Uiso  ? O
   O9         1.0     0.482966     0.855574     0.194923    Uiso  ? O
   O10        1.0     0.148287     0.821886     0.182496    Uiso  ? O
   O11        1.0     0.149332     0.160878     0.683090    Uiso  ? O
   O12        1.0     0.484131     0.127777     0.695983    Uiso  ? O
   O13        1.0     0.624119     0.368868     0.798722    Uiso  ? O
   O14        1.0     0.954933     0.342114     0.824246    Uiso  ? O
   O15        1.0     0.953956     0.642890     0.324436    Uiso  ? O
   O16        1.0     0.622951     0.615947     0.299228    Uiso  ? O
   O17        1.0     0.805337     0.736245     0.210717    Uiso  ? O
   O18        1.0     0.806463     0.247107     0.710931    Uiso  ? O
   O19        1.0     0.306317     0.247381     0.792301    Uiso  ? O
   O20        1.0     0.305511     0.737225     0.292035    Uiso  ? O
   O21        1.0     0.961850     0.230756     0.966351    Uiso  ? O
   O22        1.0     0.328703     0.238287     0.932505    Uiso  ? O
   O23        1.0     0.339552     0.744829     0.432401    Uiso  ? O
   O24        1.0     0.972367     0.753119     0.465533    Uiso  ? O
   O25        1.0     0.831211     0.744668     0.070690    Uiso  ? O
   O26        1.0     0.464647     0.753044     0.036635    Uiso  ? O
   O27        1.0     0.468158     0.231005     0.536845    Uiso  ? O
   O28        1.0     0.834998     0.239400     0.570594    Uiso  ? O
   Al1        1.0     0.052289     0.735589     0.254345    Uiso  ? Al
   Al2        1.0     0.553333     0.248180     0.748730    Uiso  ? Al
   Al3        1.0     0.053315     0.248467     0.754507    Uiso  ? Al
   Al4        1.0     0.552225     0.735764     0.248340    Uiso  ? Al
   S1         1.0     0.173921     0.234571     0.984211    Uiso  ? S
   S2         1.0     0.184049     0.749176     0.483867    Uiso  ? S
   S3         1.0     0.676789     0.749100     0.018893    Uiso  ? S
   S4         1.0     0.680167     0.235006     0.518913    Uiso  ? S
   H1         1.0     0.933926     0.310384     0.090360    Uiso  ? H
   H2         1.0     0.982353     0.460606     0.168811    Uiso  ? H
   H3         1.0     0.549425     0.533245     0.075252    Uiso  ? H
   H4         1.0     0.498572     0.386085     0.993645    Uiso  ? H
   H5         1.0     0.484789     0.523901     0.833881    Uiso  ? H
   H6         1.0     0.437143     0.674186     0.912354    Uiso  ? H
   H7         1.0     0.000868     0.597358     0.009289    Uiso  ? H
   H8         1.0     0.051115     0.450281     0.927593    Uiso  ? H
   H9         1.0     0.314472     0.741390     0.340772    Uiso  ? H
   H10        1.0     0.313962     0.242515     0.841040    Uiso  ? H
   H11        1.0     0.814736     0.242546     0.662193    Uiso  ? H
   H12        1.0     0.512313     0.186113     0.072219    Uiso  ? H
   H13        1.0     0.567108     0.035695     0.149872    Uiso  ? H
   H14        1.0     0.999513     0.903800     0.088849    Uiso  ? H
   H15        1.0     0.941521     0.054290     0.010810    Uiso  ? H
   H16        1.0     0.502313     0.080090     0.914678    Uiso  ? H
   H17        1.0     0.445151     0.929685     0.992828    Uiso  ? H
   H18        1.0     0.069593     0.948216     0.853213    Uiso  ? H
   H19        1.0     0.015572     0.797918     0.931031    Uiso  ? H
   H20        1.0     0.050645     0.535389     0.427905    Uiso  ? H
   H21        1.0     0.002667     0.387696     0.509316    Uiso  ? H
   H22        1.0     0.485070     0.460209     0.334259    Uiso  ? H
   H23        1.0     0.439625     0.309397     0.412447    Uiso  ? H
   H24        1.0     0.950547     0.929085     0.509513    Uiso  ? H
   H25        1.0     0.003831     0.079223     0.588299    Uiso  ? H
   H26        1.0     0.520315     0.798359     0.572853    Uiso  ? H
   H27        1.0     0.570635     0.948447     0.651114    Uiso  ? H
   H28        1.0     0.986465     0.524605     0.668476    Uiso  ? H
   H29        1.0     0.553319     0.448989     0.575796    Uiso  ? H
   H30        1.0     0.506662     0.596383     0.494085    Uiso  ? H
   H31        1.0     0.942447     0.675196     0.590019    Uiso  ? H
   H32        1.0     0.018117     0.186113     0.430533    Uiso  ? H
   H33        1.0     0.503089     0.904794     0.414197    Uiso  ? H
   H34        1.0     0.070290     0.036135     0.352304    Uiso  ? H
   H35        1.0     0.447925     0.054755     0.492925    Uiso  ? H
   H36        1.0     0.813547     0.740844     0.161971    Uiso  ? H
